BrewController
*SPICE Netlist generated by Advanced Sim server on 25/08/2020 4:42:47 PM

*Schematic Netlist:

.SAVE 0


*Selected Circuit Analyses:
.TRAN 2E-8 5E-6 0 2E-8
.OP

.END
